Circuit: * C:\users\delarosa\Desktop\senior-design\spice-sims\Output_python_generated.asc

Model "x7:rb01n2": Oxide thickness thinner than recommended for a level 1 MOSFET.
Instance "m:x7:7": Length shorter than recommended for a level 1 MOSFET.
Model "x7:rb01p2": Oxide thickness thinner than recommended for a level 1 MOSFET.
Instance "m:x7:6": Length shorter than recommended for a level 1 MOSFET.
Model "x7:rb01p": Oxide thickness thinner than recommended for a level 1 MOSFET.
Instance "m:x7:4": Length shorter than recommended for a level 1 MOSFET.
Instance "m:x7:3": Length shorter than recommended for a level 1 MOSFET.
Model "x7:rb01n": Oxide thickness thinner than recommended for a level 1 MOSFET.
Instance "m:x7:5": Length shorter than recommended for a level 1 MOSFET.
Instance "m:x7:2": Length shorter than recommended for a level 1 MOSFET.
Instance "m:x7:1": Length shorter than recommended for a level 1 MOSFET.
Model "x6:rb01n2": Oxide thickness thinner than recommended for a level 1 MOSFET.
Instance "m:x6:7": Length shorter than recommended for a level 1 MOSFET.
Model "x6:rb01p2": Oxide thickness thinner than recommended for a level 1 MOSFET.
Instance "m:x6:6": Length shorter than recommended for a level 1 MOSFET.
Model "x6:rb01p": Oxide thickness thinner than recommended for a level 1 MOSFET.
Instance "m:x6:4": Length shorter than recommended for a level 1 MOSFET.
Instance "m:x6:3": Length shorter than recommended for a level 1 MOSFET.
Model "x6:rb01n": Oxide thickness thinner than recommended for a level 1 MOSFET.
Instance "m:x6:5": Length shorter than recommended for a level 1 MOSFET.
Instance "m:x6:2": Length shorter than recommended for a level 1 MOSFET.
Instance "m:x6:1": Length shorter than recommended for a level 1 MOSFET.
Model "x5:rb01n2": Oxide thickness thinner than recommended for a level 1 MOSFET.
Instance "m:x5:7": Length shorter than recommended for a level 1 MOSFET.
Model "x5:rb01p2": Oxide thickness thinner than recommended for a level 1 MOSFET.
Instance "m:x5:6": Length shorter than recommended for a level 1 MOSFET.
Model "x5:rb01p": Oxide thickness thinner than recommended for a level 1 MOSFET.
Instance "m:x5:4": Length shorter than recommended for a level 1 MOSFET.
Instance "m:x5:3": Length shorter than recommended for a level 1 MOSFET.
Model "x5:rb01n": Oxide thickness thinner than recommended for a level 1 MOSFET.
Instance "m:x5:5": Length shorter than recommended for a level 1 MOSFET.
Instance "m:x5:2": Length shorter than recommended for a level 1 MOSFET.
Instance "m:x5:1": Length shorter than recommended for a level 1 MOSFET.
Model "x2:rb01n2": Oxide thickness thinner than recommended for a level 1 MOSFET.
Instance "m:x2:7": Length shorter than recommended for a level 1 MOSFET.
Model "x2:rb01p2": Oxide thickness thinner than recommended for a level 1 MOSFET.
Instance "m:x2:6": Length shorter than recommended for a level 1 MOSFET.
Model "x2:rb01p": Oxide thickness thinner than recommended for a level 1 MOSFET.
Instance "m:x2:4": Length shorter than recommended for a level 1 MOSFET.
Instance "m:x2:3": Length shorter than recommended for a level 1 MOSFET.
Model "x2:rb01n": Oxide thickness thinner than recommended for a level 1 MOSFET.
Instance "m:x2:5": Length shorter than recommended for a level 1 MOSFET.
Instance "m:x2:2": Length shorter than recommended for a level 1 MOSFET.
Instance "m:x2:1": Length shorter than recommended for a level 1 MOSFET.
Model "x3:rb01n2": Oxide thickness thinner than recommended for a level 1 MOSFET.
Instance "m:x3:7": Length shorter than recommended for a level 1 MOSFET.
Model "x3:rb01p2": Oxide thickness thinner than recommended for a level 1 MOSFET.
Instance "m:x3:6": Length shorter than recommended for a level 1 MOSFET.
Model "x3:rb01p": Oxide thickness thinner than recommended for a level 1 MOSFET.
Instance "m:x3:4": Length shorter than recommended for a level 1 MOSFET.
Instance "m:x3:3": Length shorter than recommended for a level 1 MOSFET.
Model "x3:rb01n": Oxide thickness thinner than recommended for a level 1 MOSFET.
Instance "m:x3:5": Length shorter than recommended for a level 1 MOSFET.
Instance "m:x3:2": Length shorter than recommended for a level 1 MOSFET.
Instance "m:x3:1": Length shorter than recommended for a level 1 MOSFET.
Model "x1:rb01n2": Oxide thickness thinner than recommended for a level 1 MOSFET.
Instance "m:x1:7": Length shorter than recommended for a level 1 MOSFET.
Model "x1:rb01p2": Oxide thickness thinner than recommended for a level 1 MOSFET.
Instance "m:x1:6": Length shorter than recommended for a level 1 MOSFET.
Model "x1:rb01p": Oxide thickness thinner than recommended for a level 1 MOSFET.
Instance "m:x1:4": Length shorter than recommended for a level 1 MOSFET.
Instance "m:x1:3": Length shorter than recommended for a level 1 MOSFET.
Model "x1:rb01n": Oxide thickness thinner than recommended for a level 1 MOSFET.
Instance "m:x1:5": Length shorter than recommended for a level 1 MOSFET.
Instance "m:x1:2": Length shorter than recommended for a level 1 MOSFET.
Instance "m:x1:1": Length shorter than recommended for a level 1 MOSFET.
Model "x4:rb01n2": Oxide thickness thinner than recommended for a level 1 MOSFET.
Instance "m:x4:7": Length shorter than recommended for a level 1 MOSFET.
Model "x4:rb01p2": Oxide thickness thinner than recommended for a level 1 MOSFET.
Instance "m:x4:6": Length shorter than recommended for a level 1 MOSFET.
Model "x4:rb01p": Oxide thickness thinner than recommended for a level 1 MOSFET.
Instance "m:x4:4": Length shorter than recommended for a level 1 MOSFET.
Instance "m:x4:3": Length shorter than recommended for a level 1 MOSFET.
Model "x4:rb01n": Oxide thickness thinner than recommended for a level 1 MOSFET.
Instance "m:x4:5": Length shorter than recommended for a level 1 MOSFET.
Instance "m:x4:2": Length shorter than recommended for a level 1 MOSFET.
Instance "m:x4:1": Length shorter than recommended for a level 1 MOSFET.
Direct Newton iteration for .op point succeeded.

Date: Sat May 09 19:36:43 2020
Total elapsed time: 2127.783 seconds.

tnom = 27
temp = 27
method = modified trap
totiter = 7708642
traniter = 7708633
tranpoints = 3854070
accept = 3382455
rejected = 471615
matrix size = 54
fillins = 15
solver = Normal
Thread vector: 21.9/14.4[4] 13.8/8.2[4] 45.0/16.0[4] 0.6/14.5[1]  2592/500
Matrix Compiler1: 6.50 KB object code size  3.3/2.4/[0.7]
Matrix Compiler2: 6.67 KB object code size  1.7/2.2/[0.8]

